11
Furfural, cis
  C       9.550070      6.157228     11.986086
  C       9.550069      5.290606     13.032386
  C       9.550053      7.397061     13.768700
  C       9.550063      6.105083     14.202652
  C       9.550035      8.651175     14.521276
  O       9.550082      9.753614     14.032906
  O       9.550060      7.435088     12.410038
  H       9.550075      6.015667     10.915762
  H       9.550074      4.212840     12.974554
  H       9.550062      5.781972     15.233939
  H       9.550097      8.499969     15.620441


