12
Coordinates from ORCA-job /scratch/c.c21095646/orca.56479612/orca_initial_path E   0.000000000000
  O       2.960236      0.048347     -0.001027
  N      -0.489563     -0.958452      0.000299
  C       0.601312     -0.116295      0.000638
  C       0.123560      1.179113      0.000262
  C      -1.631305     -0.225052     -0.000132
  C      -1.285974      1.110984     -0.000173
  C       1.962279     -0.633704      0.001225
  H      -0.443528     -1.963556      0.000422
  H       0.745092      2.062527      0.000367
  H      -2.602119     -0.698703     -0.000376
  H      -1.978174      1.940135     -0.000481
  H       2.038184     -1.745344     -0.001024
12
Coordinates from ORCA-job /scratch/c.c21095646/orca.56479612/orca_initial_path E   0.000000000000
  O       2.975633     -0.018842     -0.245295
  N      -0.490191     -0.949930     -0.059618
  C       0.605346     -0.113971     -0.033641
  C       0.119595      1.177746      0.035919
  C      -1.635066     -0.222973     -0.017797
  C      -1.290530      1.112349      0.026426
  C       1.961307     -0.644715     -0.034917
  H      -0.453462     -1.954929     -0.099072
  H       0.731601      2.067320      0.067315
  H      -2.604662     -0.699274     -0.034123
  H      -1.991027      1.934271      0.050149
  H       2.071454     -1.687051      0.344654
12
Coordinates from ORCA-job /scratch/c.c21095646/orca.56479612/orca_initial_path E   0.000000000000
  O       2.959967     -0.157757     -0.480680
  N      -0.487643     -0.943221     -0.129794
  C       0.608070     -0.108106     -0.088725
  C       0.117143      1.174988      0.067712
  C      -1.634632     -0.225159     -0.033366
  C      -1.293416      1.109095      0.054950
  C       1.957908     -0.650273     -0.012929
  H      -0.443529     -1.946550     -0.198520
  H       0.725626      2.065309      0.131875
  H      -2.602786     -0.704031     -0.060525
  H      -1.998548      1.925875      0.105372
  H       2.091840     -1.540169      0.644630
12
Coordinates from ORCA-job /scratch/c.c21095646/orca.56479612/orca_initial_path E   0.000000000000
  O       2.920172     -0.378933     -0.671928
  N      -0.479843     -0.934570     -0.191442
  C       0.612041     -0.094438     -0.144526
  C       0.113106      1.173776      0.096245
  C      -1.630946     -0.229468     -0.056248
  C      -1.297670      1.102830      0.083796
  C       1.954628     -0.641540      0.008965
  H      -0.419788     -1.936139     -0.274671
  H       0.718989      2.061416      0.206577
  H      -2.596627     -0.712297     -0.097862
  H      -2.007679      1.912834      0.165546
  H       2.113614     -1.323471      0.875549
12
Coordinates from ORCA-job /scratch/c.c21095646/orca.56479612/orca_initial_path E   0.000000000000
  O       2.890168     -0.669204     -0.779355
  N      -0.472545     -0.924715     -0.224888
  C       0.616528     -0.078829     -0.183389
  C       0.102414      1.170470      0.127260
  C      -1.631041     -0.232740     -0.083231
  C      -1.308827      1.095757      0.112005
  C       1.959989     -0.624614     -0.005046
  H      -0.397462     -1.922972     -0.332786
  H       0.700260      2.055426      0.291165
  H      -2.595806     -0.714507     -0.150619
  H      -2.023419      1.898350      0.223124
  H       2.159740     -1.052423      1.005760
12
Coordinates from ORCA-job /scratch/c.c21095646/orca.56479612/orca_initial_path E   0.000000000000
  O       2.773922     -0.949142     -0.833141
  N      -0.464954     -0.925281     -0.241752
  C       0.616629     -0.072765     -0.186928
  C       0.096784      1.167649      0.151823
  C      -1.626513     -0.235293     -0.119148
  C      -1.313827      1.085109      0.137146
  C       1.962790     -0.607518     -0.000612
  H      -0.376035     -1.916912     -0.391407
  H       0.686917      2.045674      0.373244
  H      -2.591039     -0.709704     -0.227561
  H      -2.026702      1.884624      0.277270
  H       2.262027     -0.766440      1.061067
12
Coordinates from ORCA-job /scratch/c.c21095646/orca.56479612/orca_initial_path E   0.000000000000
  O       2.608067     -1.207207     -0.814645
  N      -0.457055     -0.927219     -0.260442
  C       0.615751     -0.072843     -0.150012
  C       0.092606      1.164724      0.188419
  C      -1.619690     -0.237143     -0.155298
  C      -1.316679      1.073356      0.156077
  C       1.966852     -0.594198      0.011608
  H      -0.358863     -1.909440     -0.458900
  H       0.672699      2.039541      0.447300
  H      -2.581762     -0.704859     -0.305556
  H      -2.028980      1.869985      0.313618
  H       2.407054     -0.494697      1.027832
12
Coordinates from ORCA-job /scratch/c.c21095646/orca.56479612/orca_initial_path E   0.000000000000
  O       2.469163     -1.439030     -0.704319
  N      -0.453135     -0.924841     -0.282832
  C       0.612663     -0.080616     -0.087449
  C       0.085766      1.154986      0.247460
  C      -1.616337     -0.234942     -0.189687
  C      -1.321616      1.064726      0.170012
  C       1.973594     -0.585992      0.002455
  H      -0.350313     -1.897414     -0.522841
  H       0.655037      2.030576      0.527411
  H      -2.574187     -0.697176     -0.378893
  H      -2.036570      1.857810      0.332864
  H       2.555935     -0.248087      0.885820
12
Coordinates from ORCA-job /scratch/c.c21095646/orca.56479612/orca_initial_path E   0.000000000000
  O       2.358416     -1.616880     -0.522696
  N      -0.450270     -0.919986     -0.311435
  C       0.606162     -0.096343     -0.016329
  C       0.079801      1.139785      0.313597
  C      -1.613058     -0.229750     -0.222582
  C      -1.323839      1.058912      0.178795
  C       1.975107     -0.582857     -0.014441
  H      -0.340598     -1.884454     -0.580038
  H       0.644642      2.009764      0.618989
  H      -2.565860     -0.687767     -0.444831
  H      -2.041685      1.848824      0.343800
  H       2.671181     -0.039248      0.657171
12
Coordinates from ORCA-job /scratch/c.c21095646/orca.56479612/orca_initial_path E   0.000000000000
  O       2.262623     -1.729888     -0.310566
  N      -0.442465     -0.911740     -0.343828
  C       0.600073     -0.105765      0.033978
  C       0.076368      1.128068      0.371812
  C      -1.605708     -0.223209     -0.253471
  C      -1.322484      1.053529      0.190009
  C       1.964203     -0.602898      0.027764
  H      -0.317686     -1.867199     -0.637868
  H       0.647650      1.981496      0.709869
  H      -2.550919     -0.680981     -0.506724
  H      -2.045735      1.836841      0.361840
  H       2.734079      0.121747      0.357183
