12
Coordinates from ORCA-job /scratch/c.c21095646/orca.56479612/orca
  O   2.69524199143682     -0.70176687294071     -0.93477137967218
  N   -0.48333359905694     -0.94845878368527     -0.16203620425717
  C   0.58910304001295     -0.11294299655372      0.01031332470751
  C   0.11005192042608      1.16085586016487      0.17909425627811
  C   -1.64274492116545     -0.21858745203329     -0.12862987696053
  C   -1.30963000172390      1.09186686909030      0.08705137352181
  C   1.99022500515365     -0.63530617728896      0.03780936874577
  H   -0.42358092311912     -1.93083284475510     -0.36784955738607
  H   0.71036892895852      2.04295859890942      0.34913361650146
  H   -2.60279790803775     -0.69312717128764     -0.26542314873561
  H   -2.00274804595445      1.91607241622611      0.17000678997232
  H   2.36984451306959     -0.97073144584601      1.02530143728460
