12
Coordinates from ORCA-job /scratch/c.c21095646/orca.56479612/orca_NEB-CI_converged
  O   2.71650294432487     -0.81364997930834     -0.89662270325915
  N   -0.47582966888851     -0.93700439997135     -0.21890204930099
  C   0.59347064208625     -0.09758933684636     -0.05361200768777
  C   0.10969868089618      1.16822204609639      0.15902569478345
  C   -1.63857863629059     -0.22021316379255     -0.12788612576050
  C   -1.31039338564019      1.08771740103854      0.10962076819626
  C   1.98604041243217     -0.63406217870690      0.04209109021135
  H   -0.41181937710920     -1.91784600738136     -0.43131050367219
  H   0.70793445427288      2.05196892991709      0.32720217647993
  H   -2.59742183108193     -0.70365718281468     -0.22783818802652
  H   -2.00675830064741      1.90039379477881      0.24901480892494
  H   2.32715406564548     -0.88427992300930      1.06921703911119
